<?xml version="1.0" encoding="UTF-8"?>

<!-- generated on 2024-05-24 22:19:26 by Eclipse SUMO netedit Version 1.18.0
<configuration xmlns:xsi="http://www.w3.org/2001/XMLSchema-instance" xsi:noNamespaceSchemaLocation="http://sumo.dlr.de/xsd/neteditConfiguration.xsd">

    <input>
        <sumo-net-file value="D:\sumo\copyroundabout\networks\roundabout.net.xml"/>
    </input>

    <output>
        <output-file value="D:\sumo\copyroundabout\networks\roundabout.net.xml"/>
    </output>

    <processing>
        <geometry.min-radius.fix.railways value="false"/>
        <geometry.max-grade.fix value="false"/>
        <offset.disable-normalization value="true"/>
        <lefthand value="0"/>
    </processing>

    <junctions>
        <no-turnarounds value="true"/>
        <junctions.corner-detail value="5"/>
        <junctions.limit-turn-speed value="5.50"/>
        <rectangular-lane-cut value="0"/>
    </junctions>

    <pedestrian>
        <walkingareas value="0"/>
    </pedestrian>

</configuration>
-->

<net version="1.16" junctionCornerDetail="5" limitTurnSpeed="5.50" xmlns:xsi="http://www.w3.org/2001/XMLSchema-instance" xsi:noNamespaceSchemaLocation="http://sumo.dlr.de/xsd/net_file.xsd">

    <location netOffset="0.00,0.00" convBoundary="-80.00,-80.00,80.00,80.00" origBoundary="-10000000000.00,-10000000000.00,10000000000.00,10000000000.00" projParameter="!"/>

    <edge id=":J00_0" function="internal">
        <lane id=":J00_0_0" index="0" speed="6.79" length="8.65" shape="60.04,1.60 57.88,1.94 56.21,2.94 55.02,4.63 54.32,6.98"/>
    </edge>
    <edge id=":J00_1" function="internal">
        <lane id=":J00_1_0" index="0" speed="6.79" length="8.65" shape="54.32,-6.98 55.02,-4.63 56.21,-2.94 57.88,-1.94 60.04,-1.60"/>
    </edge>
    <edge id=":J00_2" function="internal">
        <lane id=":J00_2_0" index="0" speed="14.00" length="13.95" shape="54.32,-6.98 54.98,-2.86 55.20,-0.00 54.98,2.86 54.32,6.98"/>
        <lane id=":J00_2_1" index="1" speed="14.00" length="13.95" shape="51.10,-6.86 51.75,-2.81 51.96,0.00 51.75,2.81 51.10,6.86"/>
    </edge>
    <edge id=":J11_0" function="internal">
        <lane id=":J11_0_0" index="0" speed="6.79" length="8.65" shape="1.60,-60.04 1.94,-57.88 2.94,-56.21 4.63,-55.02 6.98,-54.32"/>
    </edge>
    <edge id=":J11_1" function="internal">
        <lane id=":J11_1_0" index="0" speed="6.79" length="8.65" shape="-6.98,-54.32 -4.63,-55.02 -2.94,-56.21 -1.94,-57.88 -1.60,-60.04"/>
    </edge>
    <edge id=":J11_2" function="internal">
        <lane id=":J11_2_0" index="0" speed="14.00" length="13.95" shape="-6.98,-54.32 -2.86,-54.98 -0.00,-55.20 2.86,-54.98 6.98,-54.32"/>
        <lane id=":J11_2_1" index="1" speed="14.00" length="13.95" shape="-6.86,-51.10 -2.81,-51.75 0.00,-51.96 2.81,-51.75 6.86,-51.10"/>
    </edge>
    <edge id=":J22_0" function="internal">
        <lane id=":J22_0_0" index="0" speed="6.79" length="8.65" shape="-54.32,6.98 -55.02,4.63 -56.21,2.94 -57.88,1.94 -60.04,1.60"/>
    </edge>
    <edge id=":J22_1" function="internal">
        <lane id=":J22_1_0" index="0" speed="14.00" length="13.95" shape="-54.32,6.98 -54.98,2.86 -55.20,0.00 -54.98,-2.86 -54.32,-6.98"/>
        <lane id=":J22_1_1" index="1" speed="14.00" length="13.95" shape="-51.10,6.86 -51.75,2.81 -51.96,-0.00 -51.75,-2.81 -51.10,-6.86"/>
    </edge>
    <edge id=":J22_3" function="internal">
        <lane id=":J22_3_0" index="0" speed="6.79" length="8.65" shape="-60.04,-1.60 -57.88,-1.94 -56.21,-2.94 -55.02,-4.63 -54.32,-6.98"/>
    </edge>
    <edge id=":J33_0" function="internal">
        <lane id=":J33_0_0" index="0" speed="6.79" length="8.65" shape="-1.60,60.04 -1.94,57.88 -2.94,56.21 -4.63,55.02 -6.98,54.32"/>
    </edge>
    <edge id=":J33_1" function="internal">
        <lane id=":J33_1_0" index="0" speed="6.79" length="8.65" shape="6.98,54.32 4.63,55.02 2.94,56.21 1.94,57.88 1.60,60.04"/>
    </edge>
    <edge id=":J33_2" function="internal">
        <lane id=":J33_2_0" index="0" speed="14.00" length="13.95" shape="6.98,54.32 2.86,54.98 0.00,55.20 -2.86,54.98 -6.98,54.32"/>
        <lane id=":J33_2_1" index="1" speed="14.00" length="13.95" shape="6.86,51.10 2.81,51.75 -0.00,51.96 -2.81,51.75 -6.86,51.10"/>
    </edge>

    <edge id="-road0" from="J00" to="J0" priority="-1">
        <lane id="-road0_0" index="0" speed="14.00" length="19.96" shape="60.04,-1.60 80.00,-1.60"/>
    </edge>
    <edge id="-road1" from="J11" to="J1" priority="-1">
        <lane id="-road1_0" index="0" speed="14.00" length="19.96" shape="-1.60,-60.04 -1.60,-80.00"/>
    </edge>
    <edge id="-road2" from="J22" to="J2" priority="-1">
        <lane id="-road2_0" index="0" speed="14.00" length="19.96" shape="-60.04,1.60 -80.00,1.60"/>
    </edge>
    <edge id="-road3" from="J33" to="J3" priority="-1">
        <lane id="-road3_0" index="0" speed="14.00" length="19.96" shape="1.60,60.04 1.60,80.00"/>
    </edge>
    <edge id="road0" from="J0" to="J00" priority="-1">
        <lane id="road0_0" index="0" speed="14.00" length="19.96" shape="80.00,1.60 60.04,1.60"/>
    </edge>
    <edge id="road1" from="J1" to="J11" priority="-1">
        <lane id="road1_0" index="0" speed="14.00" length="19.96" shape="1.60,-80.00 1.60,-60.04"/>
    </edge>
    <edge id="road2" from="J2" to="J22" priority="-1">
        <lane id="road2_0" index="0" speed="14.00" length="19.96" shape="-80.00,-1.60 -60.04,-1.60"/>
    </edge>
    <edge id="road3" from="J3" to="J33" priority="-1">
        <lane id="road3_0" index="0" speed="14.00" length="19.96" shape="-1.60,80.00 -1.60,60.04"/>
    </edge>
    <edge id="round0" from="J00" to="J33" priority="-1" shape="49.90,0.00 49.69,5.60 48.75,11.13 47.19,16.51 45.05,21.69 42.34,26.60 39.09,31.17 35.36,35.36 31.17,39.09 26.60,42.34 21.69,45.05 16.51,47.19 11.13,48.75 5.60,49.69 0.00,49.90">
        <lane id="round0_0" index="0" speed="14.00" length="69.65" shape="54.32,6.98 53.44,12.20 51.73,18.10 49.38,23.77 46.41,29.16 42.85,34.17 38.76,38.76 34.17,42.85 29.16,46.41 23.77,49.38 18.10,51.73 12.20,53.44 6.98,54.32"/>
        <lane id="round0_1" index="1" speed="14.00" length="69.65" shape="51.10,6.86 50.31,11.49 48.70,17.04 46.49,22.38 43.70,27.45 40.34,32.17 36.49,36.49 32.17,40.34 27.45,43.70 22.38,46.49 17.04,48.70 11.49,50.31 6.86,51.10"/>
    </edge>
    <edge id="round1" from="J33" to="J22" priority="-1" shape="0.00,49.90 -5.60,49.69 -11.13,48.75 -16.51,47.19 -21.69,45.05 -26.60,42.34 -31.17,39.09 -35.36,35.36 -39.09,31.17 -42.34,26.60 -45.05,21.69 -47.19,16.51 -48.75,11.13 -49.69,5.60 -49.90,0.00">
        <lane id="round1_0" index="0" speed="14.00" length="69.65" shape="-6.98,54.32 -12.20,53.44 -18.10,51.73 -23.77,49.38 -29.16,46.41 -34.17,42.85 -38.76,38.76 -42.85,34.17 -46.41,29.16 -49.38,23.77 -51.73,18.10 -53.44,12.20 -54.32,6.98"/>
        <lane id="round1_1" index="1" speed="14.00" length="69.65" shape="-6.86,51.10 -11.49,50.31 -17.04,48.70 -22.38,46.49 -27.45,43.70 -32.17,40.34 -36.49,36.49 -40.34,32.17 -43.70,27.45 -46.49,22.38 -48.70,17.04 -50.31,11.49 -51.10,6.86"/>
    </edge>
    <edge id="round2" from="J22" to="J11" priority="-1" shape="-49.90,0.00 -49.69,-5.60 -48.75,-11.13 -47.19,-16.51 -45.05,-21.69 -42.34,-26.60 -39.09,-31.17 -35.36,-35.36 -31.17,-39.09 -26.60,-42.34 -21.69,-45.05 -16.51,-47.19 -11.13,-48.75 -5.60,-49.69 0.00,-49.90">
        <lane id="round2_0" index="0" speed="14.00" length="69.65" shape="-54.32,-6.98 -53.44,-12.20 -51.73,-18.10 -49.38,-23.77 -46.41,-29.16 -42.85,-34.17 -38.76,-38.76 -34.17,-42.85 -29.16,-46.41 -23.77,-49.38 -18.10,-51.73 -12.20,-53.44 -6.98,-54.32"/>
        <lane id="round2_1" index="1" speed="14.00" length="69.65" shape="-51.10,-6.86 -50.31,-11.49 -48.70,-17.04 -46.49,-22.38 -43.70,-27.45 -40.34,-32.17 -36.49,-36.49 -32.17,-40.34 -27.45,-43.70 -22.38,-46.49 -17.04,-48.70 -11.49,-50.31 -6.86,-51.10"/>
    </edge>
    <edge id="round3" from="J11" to="J00" priority="-1" shape="0.00,-49.90 5.60,-49.69 11.13,-48.75 16.51,-47.19 21.69,-45.05 26.60,-42.34 31.17,-39.09 35.36,-35.36 39.09,-31.17 42.34,-26.60 45.05,-21.69 47.19,-16.51 48.75,-11.13 49.69,-5.60 49.90,0.00">
        <lane id="round3_0" index="0" speed="14.00" length="69.65" shape="6.98,-54.32 12.20,-53.44 18.10,-51.73 23.77,-49.38 29.16,-46.41 34.17,-42.85 38.76,-38.76 42.85,-34.17 46.41,-29.16 49.38,-23.77 51.73,-18.10 53.44,-12.20 54.32,-6.98"/>
        <lane id="round3_1" index="1" speed="14.00" length="69.65" shape="6.86,-51.10 11.49,-50.31 17.04,-48.70 22.38,-46.49 27.45,-43.70 32.17,-40.34 36.49,-36.49 40.34,-32.17 43.70,-27.45 46.49,-22.38 48.70,-17.04 50.31,-11.49 51.10,-6.86"/>
    </edge>

    <junction id="J0" type="dead_end" x="80.00" y="0.00" incLanes="-road0_0" intLanes="" shape="80.00,0.00 80.00,-3.20 80.00,0.00"/>
    <junction id="J00" type="priority" x="49.90" y="0.00" incLanes="road0_0 round3_0 round3_1" intLanes=":J00_0_0 :J00_1_0 :J00_2_0 :J00_2_1" shape="60.04,3.20 60.04,-3.20 58.05,-3.63 57.29,-4.16 56.68,-4.91 56.23,-5.87 55.94,-7.04 49.49,-6.79 49.96,-3.93 50.25,-1.78 50.34,0.00 50.25,1.78 49.96,3.93 49.49,6.79 55.94,7.04 56.68,4.91 57.29,4.16 58.05,3.63 58.97,3.31">
        <request index="0" response="0100" foes="0100" cont="0"/>
        <request index="1" response="0000" foes="0000" cont="0"/>
        <request index="2" response="0000" foes="0001" cont="0"/>
        <request index="3" response="0000" foes="0000" cont="0"/>
    </junction>
    <junction id="J1" type="dead_end" x="0.00" y="-80.00" incLanes="-road1_0" intLanes="" shape="0.00,-80.00 -3.20,-80.00 0.00,-80.00"/>
    <junction id="J11" type="priority" x="0.00" y="-49.90" incLanes="road1_0 round2_0 round2_1" intLanes=":J11_0_0 :J11_1_0 :J11_2_0 :J11_2_1" shape="6.79,-49.49 7.04,-55.94 4.91,-56.68 4.16,-57.29 3.63,-58.05 3.31,-58.97 3.20,-60.04 -3.20,-60.04 -3.63,-58.05 -4.16,-57.29 -4.91,-56.68 -5.87,-56.23 -7.04,-55.94 -6.79,-49.49 -3.93,-49.96 -1.78,-50.25 0.00,-50.34 1.78,-50.25 3.93,-49.96">
        <request index="0" response="0100" foes="0100" cont="0"/>
        <request index="1" response="0000" foes="0000" cont="0"/>
        <request index="2" response="0000" foes="0001" cont="0"/>
        <request index="3" response="0000" foes="0000" cont="0"/>
    </junction>
    <junction id="J2" type="dead_end" x="-80.00" y="0.00" incLanes="-road2_0" intLanes="" shape="-80.00,0.00 -80.00,3.20 -80.00,0.00"/>
    <junction id="J22" type="priority" x="-49.90" y="0.00" incLanes="round1_0 round1_1 road2_0" intLanes=":J22_0_0 :J22_1_0 :J22_1_1 :J22_3_0" shape="-55.94,7.04 -49.49,6.79 -49.96,3.93 -50.25,1.78 -50.34,-0.00 -50.25,-1.78 -49.96,-3.93 -49.49,-6.79 -55.94,-7.04 -56.68,-4.91 -57.29,-4.16 -58.05,-3.63 -58.97,-3.31 -60.04,-3.20 -60.04,3.20 -58.05,3.63 -57.29,4.16 -56.68,4.91 -56.23,5.87">
        <request index="0" response="0000" foes="0000" cont="0"/>
        <request index="1" response="0000" foes="1000" cont="0"/>
        <request index="2" response="0000" foes="0000" cont="0"/>
        <request index="3" response="0010" foes="0010" cont="0"/>
    </junction>
    <junction id="J3" type="dead_end" x="0.00" y="80.00" incLanes="-road3_0" intLanes="" shape="0.00,80.00 3.20,80.00 0.00,80.00"/>
    <junction id="J33" type="priority" x="0.00" y="49.90" incLanes="road3_0 round0_0 round0_1" intLanes=":J33_0_0 :J33_1_0 :J33_2_0 :J33_2_1" shape="-3.20,60.04 3.20,60.04 3.63,58.05 4.16,57.29 4.91,56.68 5.87,56.23 7.04,55.94 6.79,49.49 3.93,49.96 1.78,50.25 -0.00,50.34 -1.78,50.25 -3.93,49.96 -6.79,49.49 -7.04,55.94 -4.91,56.68 -4.16,57.29 -3.63,58.05 -3.31,58.97">
        <request index="0" response="0100" foes="0100" cont="0"/>
        <request index="1" response="0000" foes="0000" cont="0"/>
        <request index="2" response="0000" foes="0001" cont="0"/>
        <request index="3" response="0000" foes="0000" cont="0"/>
    </junction>

    <connection from="road0" to="round0" fromLane="0" toLane="0" via=":J00_0_0" dir="r" state="m" visibility="9.00"/>
    <connection from="road1" to="round3" fromLane="0" toLane="0" via=":J11_0_0" dir="r" state="m" visibility="9.00"/>
    <connection from="road2" to="round2" fromLane="0" toLane="0" via=":J22_3_0" dir="r" state="m" visibility="9.00"/>
    <connection from="road3" to="round1" fromLane="0" toLane="0" via=":J33_0_0" dir="r" state="m" visibility="9.00"/>
    <connection from="round0" to="-road3" fromLane="0" toLane="0" via=":J33_1_0" dir="r" state="M"/>
    <connection from="round0" to="round1" fromLane="0" toLane="0" via=":J33_2_0" dir="s" state="M"/>
    <connection from="round0" to="round1" fromLane="1" toLane="1" via=":J33_2_1" dir="s" state="M"/>
    <connection from="round1" to="-road2" fromLane="0" toLane="0" via=":J22_0_0" dir="r" state="M"/>
    <connection from="round1" to="round2" fromLane="0" toLane="0" via=":J22_1_0" dir="s" state="M"/>
    <connection from="round1" to="round2" fromLane="1" toLane="1" via=":J22_1_1" dir="s" state="M"/>
    <connection from="round2" to="-road1" fromLane="0" toLane="0" via=":J11_1_0" dir="r" state="M"/>
    <connection from="round2" to="round3" fromLane="0" toLane="0" via=":J11_2_0" dir="s" state="M"/>
    <connection from="round2" to="round3" fromLane="1" toLane="1" via=":J11_2_1" dir="s" state="M"/>
    <connection from="round3" to="-road0" fromLane="0" toLane="0" via=":J00_1_0" dir="r" state="M"/>
    <connection from="round3" to="round0" fromLane="0" toLane="0" via=":J00_2_0" dir="s" state="M"/>
    <connection from="round3" to="round0" fromLane="1" toLane="1" via=":J00_2_1" dir="s" state="M"/>

    <connection from=":J00_0" to="round0" fromLane="0" toLane="0" dir="r" state="M"/>
    <connection from=":J00_1" to="-road0" fromLane="0" toLane="0" dir="r" state="M"/>
    <connection from=":J00_2" to="round0" fromLane="0" toLane="0" dir="s" state="M"/>
    <connection from=":J00_2" to="round0" fromLane="1" toLane="1" dir="s" state="M"/>
    <connection from=":J11_0" to="round3" fromLane="0" toLane="0" dir="r" state="M"/>
    <connection from=":J11_1" to="-road1" fromLane="0" toLane="0" dir="r" state="M"/>
    <connection from=":J11_2" to="round3" fromLane="0" toLane="0" dir="s" state="M"/>
    <connection from=":J11_2" to="round3" fromLane="1" toLane="1" dir="s" state="M"/>
    <connection from=":J22_0" to="-road2" fromLane="0" toLane="0" dir="r" state="M"/>
    <connection from=":J22_1" to="round2" fromLane="0" toLane="0" dir="s" state="M"/>
    <connection from=":J22_1" to="round2" fromLane="1" toLane="1" dir="s" state="M"/>
    <connection from=":J22_3" to="round2" fromLane="0" toLane="0" dir="r" state="M"/>
    <connection from=":J33_0" to="round1" fromLane="0" toLane="0" dir="r" state="M"/>
    <connection from=":J33_1" to="-road3" fromLane="0" toLane="0" dir="r" state="M"/>
    <connection from=":J33_2" to="round1" fromLane="0" toLane="0" dir="s" state="M"/>
    <connection from=":J33_2" to="round1" fromLane="1" toLane="1" dir="s" state="M"/>

    <roundabout nodes="J00 J11 J22 J33" edges="round0 round1 round2 round3"/>

</net>
