<additional>
    <vType id="vType" length="4.00" minGap="2" maxSpeed="13.89" actionStepLength="1.00" emissionClass="Energy/default" laneChangeModel="SL2015"  lcStrategic="5" lcSpeedGainRight="1" lcSpeedGain="120" lcAssertive="20" carFollowModel="Krauss" lcCooperativeRoundabout="1" accel="3.0" decel="4.0" sigma="0.5">
        <param key="airDragCoefficient" value="0.35"/>
        <param key="constantPowerIntake" value="100"/>
        <param key="frontSurfaceArea" value="2.6"/>
        <param key="has.battery.device" value="true"/>
        <param key="internalMomentOfInertia" value="0.01"/>
        <param key="maximumBatteryCapacity" value="64000"/>
        <param key="maximumPower" value="150000"/>
        <param key="propulsionEfficiency" value=".98"/>
        <param key="radialDragCoefficient" value="0.1"/>
        <param key="recuperationEfficiency" value=".96"/>
        <param key="rollDragCoefficient" value="0.01"/>
        <param key="stoppingThreshold" value="0.1"/>
        <param key="vehicleMass" value="1830"/>
   </vType>
</additional>